/*--------------------------------*- C++ -*----------------------------------*\
| =========                 |                                                 |
| \\      /  F ield         | OpenFOAM: The Open Source CFD Toolbox           |
|  \\    /   O peration     | Version:  plus                                  |
|   \\  /    A nd           | Web:      www.OpenFOAM.com                      |
|    \\/     M anipulation  |                                                 |
\*---------------------------------------------------------------------------*/
FoamFile
{
    version     2.0;
    format      ascii;
    class       dictionary;
    object      blockMeshDict;
}
// * * * * * * * * * * * * * * * * * * * * * * * * * * * * * * * * * * * * * //

convertToMeters 1e-3;

vertices
(
    (0 0 0)
    (1 0 0)
    (1 20 0)
    (0 20 0)
    (0 0 1)
    (1 0 1)
    (1 20 1)
    (0 20 1)
);

blocks
(
    hex (0 1 2 3 4 5 6 7) (20 400 1)
    simpleGrading ( 
    ( 
       (20 30 4)
       (60 40 1)
       (20 30 0.25)
    )
    1
    1)
);

edges
(
);

boundary
(
    atmosphere
    {
        type wall;
        faces
        (
            (3 7 6 2)
        );
    }
    walls
    {
        type wall;
        faces
        (
          (0 4 7 3)
	  (2 6 5 1)
        );
    }
    inlet
    {
        type patch;
        faces
        (
            (1 5 4 0)
        );
    }
    frontAndBack
    {
        type empty;
        faces
        (
            (0 3 2 1)
            (4 5 6 7)
        );
    }
);

mergePatchPairs
(
);

// ************************************************************************* //
